Iowa_Distribution_Test_Systems/OpenDSS Model/OpenDSS Model/240_bus_test_system_VLN_Node.Txt

LINE-GROUND and LINE-LINE VOLTAGES BY BUS & NODE

Bus           Node    VLN (kV)   Angle      pu     Base kV    Node-Node   VLL (kV)  Angle      pu

EQ_SOURCE_BUS 1       39.767 /_   -0.1   0.99823    69.000        1-2     68.886 /_   29.9   0.99835
   -          2       39.777 /_ -120.1   0.99848    69.000        2-3     68.896 /_  -90.1    0.9985
   -          3       39.773 /_  119.9   0.99838    69.000        3-1     68.879 /_  149.9   0.99825
BUS_XFMR .... 1       7.9282 /_  -30.6   0.99508    13.800        1-2     13.731 /_   -0.5   0.99499
   -          2       7.9334 /_ -150.5   0.99572    13.800        2-3     13.743 /_ -120.5   0.99587
   -          3        7.933 /_   89.5   0.99568    13.800        3-1      13.74 /_  119.4   0.99563
BUS1 ........ 1       8.1264 /_  -30.6      1.02    13.800        1-2     14.074 /_   -0.5    1.0199
   -          2       8.1317 /_ -150.5    1.0206    13.800        2-3     14.086 /_ -120.5    1.0208
   -          3       8.1313 /_   89.5    1.0206    13.800        3-1     14.083 /_  119.4    1.0205
BUS1003 ..... 1       8.1249 /_  -30.6    1.0198    13.800        1-2     14.071 /_   -0.5    1.0196
   -          2         8.13 /_ -150.5    1.0204    13.800        2-3     14.084 /_ -120.5    1.0206
   -          3       8.1299 /_   89.5    1.0204    13.800        3-1     14.081 /_  119.4    1.0203
T_BUS1003_L . 1      0.12191 /_  -30.8    1.0152     0.208        1-2    0.21114 /_   -0.8    1.0151
   -          2      0.12199 /_ -150.8    1.0159     0.208        2-3    0.21133 /_ -120.8     1.016
   -          3      0.12199 /_   89.2    1.0158     0.208        3-1    0.21128 /_  119.2    1.0158
BUS1004 ..... 1       8.1247 /_  -30.6    1.0197    13.800        1-2     14.071 /_   -0.5    1.0196
   -          2       8.1298 /_ -150.5    1.0204    13.800        2-3     14.084 /_ -120.5    1.0205
   -          3       8.1297 /_   89.5    1.0204    13.800        3-1      14.08 /_  119.4    1.0203
T_BUS1004_L . 1      0.12211 /_  -30.6    1.0169     0.208        1-2    0.21148 /_   -0.6    1.0167
   -          2      0.12219 /_ -150.6    1.0175     0.208        2-3    0.21167 /_ -120.6    1.0177
   -          3      0.12219 /_   89.4    1.0175     0.208        3-1    0.21163 /_  119.4    1.0174
BUS1005 ..... 1       8.1246 /_  -30.6    1.0197    13.800        1-2      14.07 /_   -0.5    1.0196
   -          2       8.1296 /_ -150.5    1.0204    13.800        2-3     14.083 /_ -120.5    1.0205
   -          3       8.1296 /_   89.5    1.0203    13.800        3-1      14.08 /_  119.4    1.0203
T_BUS1005_L . 1      0.12222 /_  -30.6    1.0178     0.208        1-2    0.21167 /_   -0.6    1.0176
   -          2       0.1223 /_ -150.6    1.0184     0.208        2-3    0.21186 /_ -120.6    1.0186
   -          3       0.1223 /_   89.4    1.0184     0.208        3-1    0.21182 /_  119.4    1.0184
BUS1006 ..... 1       8.1242 /_  -30.6    1.0197    13.800        1-2      14.07 /_   -0.6    1.0195
   -          2       8.1291 /_ -150.5    1.0203    13.800        2-3     14.083 /_ -120.5    1.0205
   -          3       8.1292 /_   89.4    1.0203    13.800        3-1      14.08 /_  119.4    1.0203
T_BUS1006_L . 1      0.12221 /_  -30.9    1.0177     0.208        1-2    0.21153 /_   -0.7     1.017
   -          2      0.12253 /_ -150.5    1.0203     0.208
BUS1007 ..... 1       8.1242 /_  -30.6    1.0197    13.800        1-2      14.07 /_   -0.6    1.0195
   -          2        8.129 /_ -150.5    1.0203    13.800
T_BUS1007_L . 1      0.12155 /_  -31.3    1.0122     0.208        1-2    0.21053 /_   -0.8    1.0122
   -          2      0.12252 /_ -150.5    1.0203     0.208
BUS1008 ..... 1       8.1241 /_  -30.6    1.0197    13.800        1-2     14.069 /_   -0.6    1.0195
   -          2        8.129 /_ -150.5    1.0203    13.800        2-3     14.082 /_ -120.5    1.0205
   -          3       8.1291 /_   89.4    1.0203    13.800        3-1     14.079 /_  119.4    1.0202
T_BUS1008_L . 1      0.12122 /_  -30.7    1.0094     0.208        1-2    0.20993 /_   -0.7    1.0093
   -          2      0.12129 /_ -150.6      1.01     0.208        2-3    0.21012 /_ -120.6    1.0102
   -          3      0.12129 /_   89.3      1.01     0.208        3-1    0.21008 /_  119.3      1.01
BUS1009 ..... 1       8.1239 /_  -30.6    1.0196    13.800        1-2     14.069 /_   -0.6    1.0195
   -          2       8.1288 /_ -150.5    1.0202    13.800        2-3     14.082 /_ -120.5    1.0204
   -          3       8.1288 /_   89.4    1.0203    13.800        3-1     14.079 /_  119.4    1.0202
T_BUS1009_L . 1      0.12163 /_  -30.7    1.0128     0.208        1-2    0.21064 /_   -0.7    1.0127
   -          2       0.1217 /_ -150.6    1.0134     0.208        2-3    0.21083 /_ -120.7    1.0136
   -          3      0.12171 /_   89.3    1.0135     0.208        3-1    0.21079 /_  119.3    1.0134
BUS1010 ..... 1       8.1239 /_  -30.6    1.0196    13.800        1-2     14.069 /_   -0.6    1.0195
   -          2       8.1287 /_ -150.5    1.0202    13.800        2-3     14.082 /_ -120.5    1.0204
   -          3       8.1288 /_   89.4    1.0203    13.800        3-1     14.079 /_  119.4    1.0202
   -          4       8.1239 /_  -30.6    1.0196    13.800
   -          5       8.1287 /_ -150.5    1.0202    13.800
   -          6       8.1288 /_   89.4    1.0203    13.800
T_BUS1010_L . 1      0.12185 /_  -30.7    1.0146     0.208        1-2    0.21101 /_   -0.6    1.0145
   -          2      0.12192 /_ -150.6    1.0152     0.208        2-3    0.21121 /_ -120.6    1.0154
   -          3      0.12192 /_   89.4    1.0153     0.208        3-1    0.21116 /_  119.3    1.0152
BUS1011 ..... 1       8.1239 /_  -30.6    1.0196    13.800        1-2     14.069 /_   -0.6    1.0195
   -          2       8.1287 /_ -150.5    1.0202    13.800        2-3     14.082 /_ -120.5    1.0204
   -          3       8.1288 /_   89.4    1.0203    13.800        3-1     14.079 /_  119.4    1.0202
T_BUS1011_L . 1      0.12207 /_  -30.7    1.0165     0.208        1-2    0.24413 /_  -30.7    1.1737
   -          2      0.12207 /_  149.3    1.0165     0.208
BUS1012 ..... 1       8.1239 /_  -30.6    1.0196    13.800        1-2     14.069 /_   -0.6    1.0195
   -          2       8.1287 /_ -150.5    1.0202    13.800        2-3     14.082 /_ -120.5    1.0204
   -          3       8.1288 /_   89.4    1.0203    13.800        3-1     14.079 /_  119.4    1.0202
T_BUS1012_L . 1      0.12225 /_ -150.6     1.018     0.208        1-2     0.2445 /_ -150.6    1.1755
   -          2      0.12225 /_   29.4     1.018     0.208
BUS1013 ..... 1       8.1239 /_  -30.6    1.0196    13.800        1-2     14.069 /_   -0.6    1.0195
   -          2       8.1287 /_ -150.5    1.0202    13.800        2-3     14.082 /_ -120.5    1.0204
   -          3       8.1288 /_   89.4    1.0202    13.800        3-1     14.079 /_  119.4    1.0202
T_BUS1013_L . 1      0.12233 /_  -30.6    1.0186     0.208        1-2    0.21184 /_   -0.6    1.0185
   -          2       0.1224 /_ -150.5    1.0192     0.208        2-3    0.21204 /_ -120.6    1.0194
   -          3       0.1224 /_   89.4    1.0192     0.208        3-1    0.21199 /_  119.4    1.0192
BUS1014 ..... 2       8.1287 /_ -150.5    1.0202    13.800
T_BUS1014_L . 1      0.12238 /_ -150.5    1.0191     0.208        1-2    0.24476 /_ -150.5    1.1767
   -          2      0.12238 /_   29.5    1.0191     0.208
BUS1015 ..... 2       8.1287 /_ -150.5    1.0202    13.800
T_BUS1015_L . 1      0.12236 /_ -150.5    1.0189     0.208        1-2    0.24472 /_ -150.5    1.1765
   -          2      0.12236 /_   29.5    1.0189     0.208
BUS1016 ..... 3       8.1286 /_   89.4    1.0202    13.800
T_BUS1016_L . 1      0.12228 /_   89.4    1.0183     0.208        1-2    0.24456 /_   89.4    1.1758
   -          2      0.12228 /_  -90.6    1.0183     0.208
BUS1017 ..... 3       8.1286 /_   89.4    1.0202    13.800
T_BUS1017_L . 1      0.12231 /_   89.4    1.0185     0.208        1-2    0.24462 /_   89.4    1.1761
   -          2      0.12231 /_  -90.6    1.0185     0.208
BUS2002 ..... 1       8.1242 /_  -30.6    1.0197    13.800        1-2      14.07 /_   -0.6    1.0195
   -          2       8.1287 /_ -150.5    1.0202    13.800        2-3     14.082 /_ -120.5    1.0204
   -          3       8.1292 /_   89.4    1.0203    13.800        3-1     14.079 /_  119.4    1.0202
T_BUS2002_L . 1      0.12207 /_  -30.8    1.0165     0.208        1-2    0.21141 /_   -0.7    1.0164
   -          2      0.12214 /_ -150.7    1.0171     0.208        2-3     0.2116 /_ -120.7    1.0173
   -          3      0.12215 /_   89.2    1.0172     0.208        3-1    0.21155 /_  119.2    1.0171
BUS2003 ..... 1       8.1224 /_  -30.6    1.0195    13.800        1-2     14.067 /_   -0.6    1.0193
   -          2       8.1266 /_ -150.5      1.02    13.800        2-3     14.079 /_ -120.6    1.0202
   -          3        8.128 /_   89.4    1.0202    13.800        3-1     14.076 /_  119.4      1.02
T_BUS2003_L . 1       0.1218 /_  -30.8    1.0143     0.208        1-2    0.21095 /_   -0.7    1.0142
   -          2      0.12187 /_ -150.7    1.0148     0.208        2-3    0.21113 /_ -120.7    1.0151
   -          3      0.12189 /_   89.3     1.015     0.208        3-1    0.21109 /_  119.3    1.0149
BUS2005 ..... 1        8.121 /_  -30.6    1.0193    13.800        1-2     14.064 /_   -0.6    1.0192
   -          2       8.1249 /_ -150.6    1.0198    13.800        2-3     14.076 /_ -120.6      1.02
   -          3        8.127 /_   89.4      1.02    13.800        3-1     14.074 /_  119.4    1.0199
T_BUS2005_L . 1      0.12165 /_  -30.7     1.013     0.208        1-2    0.21068 /_   -0.7    1.0129
   -          2      0.12171 /_ -150.6    1.0135     0.208        2-3    0.21086 /_ -120.6    1.0137
   -          3      0.12174 /_   89.3    1.0137     0.208        3-1    0.21082 /_  119.3    1.0136
BUS2008 ..... 1       8.1207 /_  -30.6    1.0192    13.800
T_BUS2008_L . 1      0.12209 /_  -30.7    1.0167     0.208        1-2    0.24418 /_  -30.7     1.174
   -          2      0.12209 /_  149.3    1.0167     0.208
BUS2009 ..... 1       8.1207 /_  -30.6    1.0192    13.800
T_BUS2009_L . 1      0.12218 /_  -30.7    1.0174     0.208        1-2    0.24437 /_  -30.7    1.1748
   -          2      0.12218 /_  149.3    1.0174     0.208
BUS2010 ..... 1       8.1206 /_  -30.6    1.0192    13.800        1-2     14.064 /_   -0.6    1.0191
   -          2       8.1244 /_ -150.6    1.0197    13.800        2-3     14.076 /_ -120.6      1.02
   -          3       8.1267 /_   89.4      1.02    13.800        3-1     14.074 /_  119.4    1.0198
T_BUS2010_L . 1       0.1222 /_  -30.6    1.0176     0.208        1-2    0.21164 /_   -0.6    1.0175
   -          2      0.12226 /_ -150.6    1.0181     0.208        2-3    0.21182 /_ -120.6    1.0184
   -          3       0.1223 /_   89.4    1.0184     0.208        3-1    0.21179 /_  119.4    1.0182
BUS2011 ..... 1       8.1203 /_  -30.6    1.0192    13.800        1-2     14.063 /_   -0.6    1.0191
   -          2        8.124 /_ -150.6    1.0196    13.800        2-3     14.075 /_ -120.6    1.0199
   -          3       8.1265 /_   89.4      1.02    13.800        3-1     14.073 /_  119.4    1.0198
T_BUS2011_L . 1      0.12196 /_  -30.7    1.0156     0.208        1-2    0.21121 /_   -0.6    1.0154
   -          2      0.12201 /_ -150.6     1.016     0.208        2-3    0.21139 /_ -120.6    1.0163
   -          3      0.12205 /_   89.4    1.0163     0.208        3-1    0.21136 /_  119.3    1.0162
BUS2014 ..... 1       8.1197 /_  -30.6    1.0191    13.800        1-2     14.062 /_   -0.6     1.019
   -          2       8.1231 /_ -150.6    1.0195    13.800        2-3     14.074 /_ -120.6    1.0198
   -          3       8.1261 /_   89.4    1.0199    13.800        3-1     14.072 /_  119.4    1.0197
T_BUS2014_L . 1      0.12219 /_ -150.6    1.0175     0.208        1-2    0.24438 /_ -150.6    1.1749
   -          2      0.12219 /_   29.4    1.0175     0.208
BUS2015 ..... 2       8.1231 /_ -150.6    1.0195    13.800
T_BUS2015_L . 1      0.12219 /_ -150.6    1.0175     0.208        1-2    0.24438 /_ -150.6    1.1749
   -          2      0.12219 /_   29.4    1.0175     0.208
BUS2016 ..... 1       8.1197 /_  -30.6    1.0191    13.800        1-2     14.062 /_   -0.6     1.019
   -          2       8.1231 /_ -150.6    1.0195    13.800        2-3     14.074 /_ -120.6    1.0198
   -          3       8.1262 /_   89.4    1.0199    13.800        3-1     14.072 /_  119.4    1.0197
T_BUS2016_L . 1      0.12221 /_ -150.6    1.0176     0.208        1-2    0.24442 /_ -150.6    1.1751
   -          2      0.12221 /_   29.4    1.0176     0.208
BUS2017 ..... 1       8.1197 /_  -30.6    1.0191    13.800        1-2     14.062 /_   -0.6     1.019
   -          2        8.123 /_ -150.6    1.0195    13.800        2-3     14.074 /_ -120.6    1.0198
   -          3       8.1262 /_   89.4    1.0199    13.800        3-1     14.072 /_  119.4    1.0197
T_BUS2017_L . 1       0.1218 /_ -150.7    1.0142     0.208        1-2    0.24359 /_ -150.7    1.1711
   -          2       0.1218 /_   29.3    1.0142     0.208
BUS2018 ..... 1       8.1197 /_  -30.6    1.0191    13.800        1-2     14.062 /_   -0.6     1.019
   -          2       8.1229 /_ -150.6    1.0195    13.800        2-3     14.074 /_ -120.6    1.0198
   -          3       8.1262 /_   89.4    1.0199    13.800        3-1     14.072 /_  119.4    1.0197
T_BUS2018_L . 1      0.12209 /_ -150.7    1.0167     0.208        1-2    0.24418 /_ -150.7    1.1739
   -          2      0.12209 /_   29.3    1.0167     0.208
BUS2020 ..... 2       8.1231 /_ -150.6    1.0195    13.800
T_BUS2020_L . 1      0.12206 /_ -150.7    1.0164     0.208        1-2    0.24411 /_ -150.7    1.1736
   -          2      0.12206 /_   29.3    1.0164     0.208
BUS2022 ..... 3       8.1259 /_   89.4    1.0199    13.800
T_BUS2022_L . 1       0.1221 /_   89.3    1.0168     0.208        1-2     0.2442 /_   89.3    1.1741
   -          2       0.1221 /_  -90.7    1.0168     0.208
BUS2023 ..... 3       8.1259 /_   89.4    1.0199    13.800
T_BUS2023_L . 1      0.12227 /_   89.4    1.0182     0.208        1-2    0.24455 /_   89.4    1.1757
   -          2      0.12227 /_  -90.6    1.0182     0.208
BUS2024 ..... 3       8.1258 /_   89.4    1.0199    13.800
T_BUS2024_L . 1      0.12219 /_   89.3    1.0175     0.208        1-2    0.24438 /_   89.3    1.1749
   -          2      0.12219 /_  -90.7    1.0175     0.208
BUS2025 ..... 3       8.1257 /_   89.4    1.0199    13.800
T_BUS2025_L . 1      0.12212 /_   89.3    1.0169     0.208        1-2    0.24423 /_   89.3    1.1742
   -          2      0.12212 /_  -90.7    1.0169     0.208
BUS2028 ..... 1       8.1191 /_  -30.6     1.019    13.800        1-2     14.061 /_   -0.6    1.0189
   -          2       8.1227 /_ -150.6    1.0195    13.800        2-3     14.073 /_ -120.6    1.0198
   -          3       8.1257 /_   89.4    1.0199    13.800        3-1     14.071 /_  119.4    1.0197
T_BUS2028_L . 1      0.12228 /_  -30.6    1.0182     0.208        1-2    0.24456 /_  -30.6    1.1758
   -          2      0.12228 /_  149.4    1.0182     0.208
BUS2029 ..... 1        8.119 /_  -30.6     1.019    13.800        1-2     14.061 /_   -0.6    1.0189
   -          2       8.1227 /_ -150.6    1.0195    13.800        2-3     14.073 /_ -120.6    1.0198
   -          3       8.1257 /_   89.4    1.0199    13.800        3-1     14.071 /_  119.4    1.0197
T_BUS2029_L . 1      0.12198 /_  -30.7    1.0157     0.208        1-2    0.21125 /_   -0.7    1.0156
   -          2      0.12203 /_ -150.7    1.0162     0.208        2-3    0.21143 /_ -120.7    1.0165
   -          3      0.12208 /_   89.3    1.0166     0.208        3-1     0.2114 /_  119.3    1.0164
BUS2030 ..... 1        8.119 /_  -30.6     1.019    13.800        1-2     14.061 /_   -0.6    1.0189
   -          2       8.1227 /_ -150.6    1.0195    13.800        2-3     14.073 /_ -120.6    1.0198
   -          3       8.1256 /_   89.4    1.0199    13.800        3-1     14.071 /_  119.4    1.0196
T_BUS2030_L . 1      0.12211 /_  -30.7    1.0168     0.208        1-2    0.21147 /_   -0.6    1.0167
   -          2      0.12216 /_ -150.6    1.0173     0.208        2-3    0.21165 /_ -120.6    1.0175
   -          3      0.12221 /_   89.4    1.0176     0.208        3-1    0.21162 /_  119.3    1.0174
BUS2031 ..... 1        8.119 /_  -30.6     1.019    13.800        1-2     14.061 /_   -0.6    1.0189
   -          2       8.1227 /_ -150.6    1.0195    13.800        2-3     14.073 /_ -120.6    1.0198
   -          3       8.1257 /_   89.4    1.0199    13.800        3-1     14.071 /_  119.4    1.0196
T_BUS2031_L . 1      0.12193 /_  -30.7    1.0153     0.208        1-2    0.24386 /_  -30.7    1.1724
   -          2      0.12193 /_  149.3    1.0153     0.208
BUS2032 ..... 1        8.119 /_  -30.6     1.019    13.800        1-2     14.061 /_   -0.6    1.0189
   -          2       8.1226 /_ -150.6    1.0195    13.800        2-3     14.073 /_ -120.6    1.0198
   -          3       8.1256 /_   89.4    1.0199    13.800        3-1     14.071 /_  119.4    1.0196
T_BUS2032_L . 1      0.12218 /_  -30.7    1.0174     0.208        1-2     0.2116 /_   -0.6    1.0173
   -          2      0.12223 /_ -150.6    1.0179     0.208        2-3    0.21178 /_ -120.6    1.0182
   -          3      0.12228 /_   89.4    1.0182     0.208        3-1    0.21175 /_  119.4     1.018
BUS2034 ..... 1       8.1187 /_  -30.6     1.019    13.800        1-2     14.061 /_   -0.6    1.0189
   -          2       8.1223 /_ -150.6    1.0194    13.800        2-3     14.072 /_ -120.6    1.0197
   -          3       8.1254 /_   89.4    1.0198    13.800        3-1     14.071 /_  119.4    1.0196
T_BUS2034_L . 1      0.12205 /_  -30.7    1.0163     0.208        1-2    0.21138 /_   -0.6    1.0162
   -          2       0.1221 /_ -150.6    1.0168     0.208        2-3    0.21155 /_ -120.6    1.0171
   -          3      0.12215 /_   89.4    1.0172     0.208        3-1    0.21153 /_  119.3     1.017
BUS2035 ..... 1       8.1186 /_  -30.6     1.019    13.800        1-2      14.06 /_   -0.6    1.0189
   -          2       8.1221 /_ -150.6    1.0194    13.800        2-3     14.072 /_ -120.6    1.0197
   -          3       8.1253 /_   89.4    1.0198    13.800        3-1      14.07 /_  119.4    1.0196
T_BUS2035_L . 1      0.12218 /_  -30.7    1.0174     0.208        1-2    0.21161 /_   -0.6    1.0174
   -          2      0.12224 /_ -150.6    1.0179     0.208        2-3    0.21178 /_ -120.6    1.0182
   -          3      0.12228 /_   89.4    1.0183     0.208        3-1    0.21176 /_  119.3    1.0181
BUS2037 ..... 1       8.1183 /_  -30.6    1.0189    13.800        1-2      14.06 /_   -0.6    1.0188
   -          2       8.1219 /_ -150.6    1.0194    13.800        2-3     14.072 /_ -120.6    1.0197
   -          3       8.1251 /_   89.4    1.0198    13.800        3-1      14.07 /_  119.4    1.0196
T_BUS2037_L . 1      0.12204 /_  -30.7    1.0163     0.208        1-2    0.21137 /_   -0.7    1.0162
   -          2       0.1221 /_ -150.6    1.0167     0.208        2-3    0.21154 /_ -120.6     1.017
   -          3      0.12215 /_   89.4    1.0171     0.208        3-1    0.21152 /_  119.3    1.0169
BUS2040 ..... 1        8.117 /_  -30.7    1.0188    13.800        1-2     14.058 /_   -0.6    1.0187
   -          2       8.1205 /_ -150.6    1.0192    13.800        2-3      14.07 /_ -120.6    1.0195
   -          3        8.124 /_   89.4    1.0197    13.800        3-1     14.068 /_  119.4    1.0194
T_BUS2040_L . 1      0.12133 /_  -31.3    1.0103     0.208        1-2    0.21013 /_   -1.2    1.0102
   -          2      0.12138 /_ -151.2    1.0108     0.208        2-3     0.2103 /_ -121.2    1.0111
   -          3      0.12144 /_   88.8    1.0112     0.208        3-1    0.21028 /_  118.7     1.011
BUS2041 ..... 1        8.117 /_  -30.7    1.0188    13.800        1-2     14.058 /_   -0.6    1.0187
   -          2       8.1205 /_ -150.6    1.0192    13.800        2-3      14.07 /_ -120.6    1.0195
   -          3        8.124 /_   89.4    1.0197    13.800        3-1     14.068 /_  119.4    1.0194
T_BUS2041_L . 1       0.1222 /_  -30.7    1.0176     0.208        1-2    0.21164 /_   -0.6    1.0175
   -          2      0.12225 /_ -150.6     1.018     0.208        2-3    0.21181 /_ -120.6    1.0183
   -          3       0.1223 /_   89.4    1.0185     0.208        3-1    0.21179 /_  119.3    1.0182
BUS2042 ..... 1       8.1171 /_  -30.7    1.0188    13.800        1-2     14.058 /_   -0.6    1.0187
   -          2       8.1206 /_ -150.6    1.0192    13.800        2-3      14.07 /_ -120.6    1.0195
   -          3       8.1241 /_   89.4    1.0197    13.800        3-1     14.068 /_  119.4    1.0194
T_BUS2042_L . 1      0.12213 /_  -30.7     1.017     0.208        1-2    0.21152 /_   -0.6    1.0169
   -          2      0.12219 /_ -150.6    1.0175     0.208        2-3     0.2117 /_ -120.6    1.0178
   -          3      0.12224 /_   89.4    1.0179     0.208        3-1    0.21167 /_  119.3    1.0177
BUS2043 ..... 1       8.1169 /_  -30.7    1.0188    13.800        1-2     14.058 /_   -0.6    1.0187
   -          2       8.1203 /_ -150.6    1.0192    13.800        2-3     14.069 /_ -120.6    1.0195
   -          3        8.124 /_   89.4    1.0196    13.800        3-1     14.068 /_  119.4    1.0194
T_BUS2043_L . 1      0.12206 /_  -30.7    1.0164     0.208        1-2     0.2114 /_   -0.7    1.0163
   -          2      0.12211 /_ -150.7    1.0168     0.208        2-3    0.21157 /_ -120.7    1.0172
   -          3      0.12217 /_   89.3    1.0173     0.208        3-1    0.21155 /_  119.3    1.0171
BUS2045 ..... 2       8.1195 /_ -150.6    1.0191    13.800
T_BUS2045_L . 1      0.12195 /_ -150.7    1.0155     0.208        1-2     0.2439 /_ -150.7    1.1726
   -          2      0.12195 /_   29.3    1.0155     0.208
BUS2046 ..... 2       8.1194 /_ -150.6    1.0191    13.800
T_BUS2046_L . 1      0.12199 /_ -150.7    1.0159     0.208        1-2    0.24399 /_ -150.7     1.173
   -          2      0.12199 /_   29.3    1.0159     0.208
BUS2047 ..... 2       8.1195 /_ -150.6    1.0191    13.800
T_BUS2047_L . 1      0.12208 /_ -150.7    1.0166     0.208        1-2    0.24417 /_ -150.7    1.1739
   -          2      0.12208 /_   29.3    1.0166     0.208
BUS2048 ..... 2       8.1194 /_ -150.6    1.0191    13.800
T_BUS2048_L . 1      0.12211 /_ -150.7    1.0169     0.208        1-2    0.24423 /_ -150.7    1.1742
   -          2      0.12211 /_   29.3    1.0169     0.208
BUS2049 ..... 1       8.1164 /_  -30.7    1.0187    13.800        1-2     14.057 /_   -0.6    1.0186
   -          2       8.1198 /_ -150.6    1.0191    13.800        2-3     14.068 /_ -120.6    1.0194
   -          3       8.1235 /_   89.4    1.0196    13.800        3-1     14.067 /_  119.4    1.0193
T_BUS2049_L . 1      0.12214 /_   89.3    1.0171     0.208        1-2    0.24429 /_   89.3    1.1745
   -          2      0.12214 /_  -90.7    1.0171     0.208
BUS2050 ..... 1       8.1164 /_  -30.7    1.0187    13.800        1-2     14.057 /_   -0.6    1.0186
   -          2       8.1197 /_ -150.6    1.0191    13.800        2-3     14.068 /_ -120.6    1.0194
   -          3       8.1234 /_   89.4    1.0196    13.800        3-1     14.067 /_  119.4    1.0193
T_BUS2050_L . 1      0.12218 /_   89.3    1.0174     0.208        1-2    0.24435 /_   89.3    1.1748
   -          2      0.12218 /_  -90.7    1.0174     0.208
BUS2051 ..... 1       8.1163 /_  -30.7    1.0187    13.800        1-2     14.057 /_   -0.6    1.0186
   -          2       8.1197 /_ -150.6    1.0191    13.800        2-3     14.068 /_ -120.6    1.0194
   -          3       8.1233 /_   89.4    1.0196    13.800        3-1     14.067 /_  119.4    1.0193
T_BUS2051_L . 1      0.12199 /_   89.3    1.0159     0.208        1-2    0.24399 /_   89.3     1.173
   -          2      0.12199 /_  -90.7    1.0159     0.208
BUS2052 ..... 1       8.1163 /_  -30.7    1.0187    13.800        1-2     14.057 /_   -0.6    1.0186
   -          2       8.1196 /_ -150.6    1.0191    13.800        2-3     14.068 /_ -120.6    1.0194
   -          3       8.1232 /_   89.4    1.0196    13.800        3-1     14.067 /_  119.4    1.0193
T_BUS2052_L . 1      0.12145 /_  -31.0    1.0113     0.208        1-2    0.21033 /_   -1.0    1.0112
   -          2       0.1215 /_ -151.0    1.0117     0.208        2-3    0.21051 /_ -121.0    1.0121
   -          3      0.12155 /_   89.0    1.0122     0.208        3-1    0.21049 /_  119.0     1.012
BUS2053 ..... 1        8.116 /_  -30.7    1.0186    13.800        1-2     14.056 /_   -0.6    1.0186
   -          2       8.1196 /_ -150.6    1.0191    13.800        2-3     14.068 /_ -120.6    1.0194
   -          3       8.1235 /_   89.4    1.0196    13.800        3-1     14.067 /_  119.4    1.0193
T_BUS2053_L . 1      0.12223 /_  -30.7    1.0178     0.208        1-2     0.2117 /_   -0.7    1.0178
   -          2      0.12229 /_ -150.6    1.0183     0.208        2-3    0.21187 /_ -120.6    1.0186
   -          3      0.12235 /_   89.3    1.0188     0.208        3-1    0.21185 /_  119.3    1.0185
BUS2054 ..... 1       8.1159 /_  -30.7    1.0186    13.800        1-2     14.056 /_   -0.6    1.0186
   -          2       8.1197 /_ -150.6    1.0191    13.800        2-3     14.068 /_ -120.6    1.0194
   -          3       8.1236 /_   89.4    1.0196    13.800        3-1     14.067 /_  119.4    1.0193
T_BUS2054_L . 1      0.12177 /_  -30.8     1.014     0.208        1-2    0.24355 /_  -30.8    1.1709
   -          2      0.12177 /_  149.2     1.014     0.208
BUS2055 ..... 1       8.1158 /_  -30.7    1.0186    13.800        1-2     14.056 /_   -0.6    1.0186
   -          2       8.1197 /_ -150.6    1.0191    13.800        2-3     14.068 /_ -120.6    1.0194
   -          3       8.1236 /_   89.4    1.0196    13.800        3-1     14.067 /_  119.4    1.0193
T_BUS2055_L . 1      0.12207 /_  -30.7    1.0165     0.208        1-2    0.24413 /_  -30.7    1.1737
   -          2      0.12207 /_  149.3    1.0165     0.208
BUS2056 ..... 1       8.1158 /_  -30.7    1.0186    13.800        1-2     14.056 /_   -0.6    1.0186
   -          2       8.1197 /_ -150.6    1.0191    13.800        2-3     14.068 /_ -120.6    1.0194
   -          3       8.1236 /_   89.4    1.0196    13.800        3-1     14.067 /_  119.4    1.0193
T_BUS2056_L . 1      0.12175 /_  -30.8    1.0139     0.208        1-2    0.24351 /_  -30.8    1.1707
   -          2      0.12175 /_  149.2    1.0139     0.208
BUS2058 ..... 1       8.1156 /_  -30.7    1.0186    13.800        1-2     14.056 /_   -0.6    1.0185
   -          2       8.1191 /_ -150.6     1.019    13.800        2-3     14.067 /_ -120.6    1.0194
   -          3       8.1232 /_   89.4    1.0196    13.800        3-1     14.066 /_  119.4    1.0193
T_BUS2058_L . 1       0.1219 /_  -30.9     1.015     0.208        1-2    0.21111 /_   -0.8     1.015
   -          2      0.12195 /_ -150.8    1.0155     0.208        2-3    0.21129 /_ -120.8    1.0158
   -          3      0.12201 /_   89.2     1.016     0.208        3-1    0.21127 /_  119.1    1.0157
BUS2059 ..... 1       8.1158 /_  -30.7    1.0186    13.800        1-2     14.056 /_   -0.6    1.0185
   -          2       8.1191 /_ -150.6     1.019    13.800        2-3     14.068 /_ -120.6    1.0194
   -          3       8.1234 /_   89.4    1.0196    13.800        3-1     14.066 /_  119.4    1.0193
T_BUS2059_L . 1        0.122 /_ -150.7    1.0159     0.208        1-2      0.244 /_ -150.7    1.1731
   -          2        0.122 /_   29.3    1.0159     0.208
BUS2060 ..... 1       8.1158 /_  -30.7    1.0186    13.800        1-2     14.056 /_   -0.6    1.0185
   -          2       8.1191 /_ -150.6     1.019    13.800        2-3     14.068 /_ -120.6    1.0194
   -          3       8.1234 /_   89.4    1.0196    13.800        3-1     14.066 /_  119.4    1.0193
T_BUS2060_L . 1       0.1221 /_ -150.7    1.0168     0.208        1-2     0.2442 /_ -150.7     1.174
   -          2       0.1221 /_   29.3    1.0168     0.208
BUS3002 ..... 1       8.1141 /_  -30.6    1.0184    13.800        1-2     14.058 /_   -0.6    1.0187
   -          2       8.1256 /_ -150.5    1.0199    13.800        2-3     14.072 /_ -120.6    1.0197
   -          3       8.1221 /_   89.4    1.0194    13.800        3-1     14.066 /_  119.4    1.0193
T_BUS3002_L . 1      0.12066 /_  -30.8    1.0047     0.208        1-2    0.20904 /_   -0.8     1.005
   -          2      0.12083 /_ -150.7    1.0062     0.208        2-3    0.20926 /_ -120.8     1.006
   -          3      0.12078 /_   89.2    1.0057     0.208        3-1    0.20917 /_  119.2    1.0056
BUS3004 ..... 1       8.1141 /_  -30.6    1.0184    13.800        1-2     14.058 /_   -0.6    1.0187
   -          2       8.1257 /_ -150.5    1.0199    13.800        2-3     14.072 /_ -120.6    1.0197
   -          3       8.1222 /_   89.4    1.0194    13.800        3-1     14.066 /_  119.4    1.0193
T_BUS3004_L . 1      0.12202 /_  -30.6    1.0161     0.208        1-2    0.21141 /_   -0.6    1.0164
   -          2       0.1222 /_ -150.6    1.0176     0.208        2-3    0.21163 /_ -120.6    1.0174
   -          3      0.12215 /_   89.4    1.0171     0.208        3-1    0.21154 /_  119.4     1.017
BUS3006 ..... 1       8.1036 /_  -30.7    1.0171    13.800        1-2     14.044 /_   -0.6    1.0177
   -          2       8.1207 /_ -150.6    1.0192    13.800        2-3      14.06 /_ -120.6    1.0188
   -          3       8.1144 /_   89.4    1.0184    13.800        3-1     14.052 /_  119.4    1.0183
T_BUS3006_L . 1      0.12179 /_  -30.7    1.0142     0.208        1-2    0.21107 /_   -0.6    1.0148
   -          2      0.12205 /_ -150.6    1.0163     0.208        2-3    0.21131 /_ -120.6    1.0159
   -          3      0.12195 /_   89.4    1.0155     0.208        3-1    0.21119 /_  119.3    1.0153
BUS3007 ..... 1       8.1036 /_  -30.7    1.0171    13.800        1-2     14.044 /_   -0.6    1.0177
   -          2       8.1206 /_ -150.6    1.0192    13.800        2-3      14.06 /_ -120.6    1.0188
   -          3       8.1144 /_   89.4    1.0184    13.800        3-1     14.052 /_  119.4    1.0183
T_BUS3007_L . 1      0.12167 /_  -30.7    1.0131     0.208        1-2    0.21085 /_   -0.6    1.0137
   -          2      0.12192 /_ -150.6    1.0153     0.208        2-3     0.2111 /_ -120.6    1.0149
   -          3      0.12183 /_   89.4    1.0145     0.208        3-1    0.21097 /_  119.3    1.0143
BUS3009 ..... 1        8.103 /_  -30.7     1.017    13.800
T_BUS3009_L . 1       0.1218 /_  -30.7    1.0142     0.208        1-2    0.24359 /_  -30.7    1.1711
   -          2       0.1218 /_  149.3    1.0142     0.208
BUS3010 ..... 1       8.1028 /_  -30.7     1.017    13.800
T_BUS3010_L . 1      0.12174 /_  -30.8    1.0138     0.208        1-2    0.24348 /_  -30.8    1.1706
   -          2      0.12174 /_  149.2    1.0138     0.208
BUS3011 ..... 1       8.1027 /_  -30.7     1.017    13.800
T_BUS3011_L . 1      0.12162 /_  -30.8    1.0128     0.208        1-2    0.24324 /_  -30.8    1.1694
   -          2      0.12162 /_  149.2    1.0128     0.208
BUS3012 ..... 1       8.1026 /_  -30.7     1.017    13.800
T_BUS3012_L . 1      0.12188 /_  -30.7    1.0149     0.208        1-2    0.24375 /_  -30.7    1.1719
   -          2      0.12188 /_  149.3    1.0149     0.208
BUS3013 ..... 2       8.1204 /_ -150.6    1.0192    13.800
T_BUS3013_L . 1      0.12207 /_ -150.7    1.0165     0.208        1-2    0.24415 /_ -150.7    1.1738
   -          2      0.12207 /_   29.3    1.0165     0.208
BUS3014 ..... 2       8.1203 /_ -150.6    1.0192    13.800
T_BUS3014_L . 1      0.12211 /_ -150.6    1.0168     0.208        1-2    0.24422 /_ -150.6    1.1741
   -          2      0.12211 /_   29.4    1.0168     0.208
BUS3016 ..... 2       8.1197 /_ -150.6    1.0191    13.800
T_BUS3016_L . 1      0.12189 /_ -150.7     1.015     0.208        1-2    0.24378 /_ -150.7     1.172
   -          2      0.12189 /_   29.3     1.015     0.208
BUS3017 ..... 2       8.1196 /_ -150.6    1.0191    13.800
T_BUS3017_L . 1      0.12211 /_ -150.7    1.0168     0.208        1-2    0.24422 /_ -150.7    1.1741
   -          2      0.12211 /_   29.3    1.0168     0.208
BUS3018 ..... 3       8.1124 /_   89.4    1.0182    13.800
T_BUS3018_L . 1      0.12187 /_   89.3    1.0148     0.208        1-2    0.24374 /_   89.3    1.1718
   -          2      0.12187 /_  -90.7    1.0148     0.208
BUS3019 ..... 3       8.1122 /_   89.4    1.0182    13.800
T_BUS3019_L . 1      0.12188 /_   89.3    1.0149     0.208        1-2    0.24375 /_   89.3    1.1719
   -          2      0.12188 /_  -90.7    1.0149     0.208
BUS3020 ..... 3        8.112 /_   89.4    1.0181    13.800
T_BUS3020_L . 1      0.12202 /_   89.4    1.0161     0.208        1-2    0.24404 /_   89.4    1.1733
   -          2      0.12202 /_  -90.6    1.0161     0.208
BUS3021 ..... 3       8.1119 /_   89.4    1.0181    13.800
T_BUS3021_L . 1      0.12169 /_   89.3    1.0133     0.208        1-2    0.24338 /_   89.3    1.1701
   -          2      0.12169 /_  -90.7    1.0133     0.208
BUS3023 ..... 1       8.1008 /_  -30.7    1.0167    13.800
T_BUS3023_L . 1      0.12186 /_  -30.8    1.0148     0.208        1-2    0.24373 /_  -30.8    1.1718
   -          2      0.12186 /_  149.2    1.0148     0.208
BUS3024 ..... 1       8.1006 /_  -30.7    1.0167    13.800
T_BUS3024_L . 1       0.1217 /_  -30.8    1.0135     0.208        1-2    0.24341 /_  -30.8    1.1702
   -          2       0.1217 /_  149.2    1.0135     0.208
BUS3025 ..... 1       8.1005 /_  -30.7    1.0167    13.800
T_BUS3025_L . 1      0.12175 /_  -30.8    1.0138     0.208        1-2     0.2435 /_  -30.8    1.1707
   -          2      0.12175 /_  149.2    1.0138     0.208
BUS3026 ..... 1       8.1007 /_  -30.7    1.0167    13.800
T_BUS3026_L . 1       0.1215 /_  -30.9    1.0118     0.208        1-2      0.243 /_  -30.9    1.1683
   -          2       0.1215 /_  149.1    1.0118     0.208
BUS3027 ..... 1       8.1004 /_  -30.7    1.0167    13.800
T_BUS3027_L . 1      0.12187 /_  -30.8    1.0148     0.208        1-2    0.24373 /_  -30.8    1.1718
   -          2      0.12187 /_  149.2    1.0148     0.208
BUS3028 ..... 1       8.1002 /_  -30.7    1.0167    13.800
T_BUS3028_L . 1      0.12171 /_  -30.8    1.0135     0.208        1-2    0.24342 /_  -30.8    1.1703
   -          2      0.12171 /_  149.2    1.0135     0.208
BUS3029 ..... 1       8.1002 /_  -30.7    1.0167    13.800
T_BUS3029_L . 1      0.12184 /_  -30.7    1.0145     0.208        1-2    0.24367 /_  -30.7    1.1715
   -          2      0.12184 /_  149.3    1.0145     0.208
BUS3031 ..... 1       8.0994 /_  -30.7    1.0166    13.800        1-2     14.037 /_   -0.6    1.0172
   -          2       8.1185 /_ -150.6     1.019    13.800        2-3     14.055 /_ -120.6    1.0184
   -          3       8.1097 /_   89.4    1.0179    13.800        3-1     14.045 /_  119.3    1.0178
T_BUS3031_L . 1      0.12176 /_  -30.8    1.0139     0.208        1-2    0.21101 /_   -0.7    1.0145
   -          2      0.12204 /_ -150.7    1.0163     0.208        2-3    0.21128 /_ -120.7    1.0158
   -          3      0.12191 /_   89.3    1.0152     0.208        3-1    0.21114 /_  119.3    1.0151
BUS3032 ..... 1       8.0988 /_  -30.7    1.0165    13.800        1-2     14.036 /_   -0.6    1.0171
   -          2       8.1184 /_ -150.6     1.019    13.800        2-3     14.054 /_ -120.6    1.0184
   -          3       8.1089 /_   89.4    1.0178    13.800        3-1     14.044 /_  119.3    1.0177
T_BUS3032_L . 1      0.12156 /_  -30.7    1.0123     0.208        1-2    0.21068 /_   -0.6    1.0129
   -          2      0.12186 /_ -150.6    1.0148     0.208        2-3    0.21095 /_ -120.6    1.0142
   -          3      0.12172 /_   89.4    1.0136     0.208        3-1    0.21081 /_  119.3    1.0135
BUS3033 ..... 1       8.0979 /_  -30.7    1.0164    13.800        1-2     14.035 /_   -0.6     1.017
   -          2       8.1182 /_ -150.6    1.0189    13.800        2-3     14.053 /_ -120.6    1.0183
   -          3       8.1078 /_   89.4    1.0176    13.800        3-1     14.043 /_  119.3    1.0176
T_BUS3033_L . 1      0.12124 /_  -30.8    1.0096     0.208        1-2    0.21013 /_   -0.7    1.0102
   -          2      0.12155 /_ -150.7    1.0122     0.208        2-3     0.2104 /_ -120.7    1.0116
   -          3      0.12139 /_   89.3    1.0108     0.208        3-1    0.21025 /_  119.2    1.0108
BUS3034 ..... 1       8.0973 /_  -30.7    1.0163    13.800        1-2     14.034 /_   -0.6    1.0169
   -          2       8.1181 /_ -150.6    1.0189    13.800        2-3     14.052 /_ -120.6    1.0183
   -          3        8.107 /_   89.4    1.0175    13.800        3-1     14.042 /_  119.3    1.0175
T_BUS3034_L . 1       0.1217 /_  -30.8    1.0134     0.208        1-2    0.21092 /_   -0.7     1.014
   -          2      0.12201 /_ -150.7     1.016     0.208        2-3     0.2112 /_ -120.7    1.0154
   -          3      0.12184 /_   89.3    1.0146     0.208        3-1    0.21104 /_  119.2    1.0146
BUS3035 ..... 1          8.1 /_  -30.7    1.0166    13.800        1-2     14.038 /_   -0.6    1.0172
   -          2       8.1185 /_ -150.6     1.019    13.800        2-3     14.055 /_ -120.6    1.0185
   -          3       8.1105 /_   89.4     1.018    13.800        3-1     14.046 /_  119.3    1.0178
T_BUS3035_L . 1       0.1212 /_  -30.8    1.0092     0.208        1-2    0.21005 /_   -0.7    1.0098
   -          2      0.12148 /_ -150.7    1.0116     0.208        2-3    0.21031 /_ -120.7    1.0111
   -          3      0.12136 /_   89.3    1.0106     0.208        3-1    0.21017 /_  119.2    1.0104
BUS3036 ..... 1       8.0999 /_  -30.7    1.0166    13.800        1-2     14.038 /_   -0.6    1.0172
   -          2       8.1182 /_ -150.6    1.0189    13.800        2-3     14.055 /_ -120.6    1.0185
   -          3       8.1106 /_   89.4     1.018    13.800        3-1     14.046 /_  119.3    1.0178
T_BUS3036_L . 1      0.12176 /_  -30.7     1.014     0.208        1-2    0.21103 /_   -0.7    1.0146
   -          2      0.12204 /_ -150.6    1.0163     0.208        2-3    0.21128 /_ -120.7    1.0158
   -          3      0.12193 /_   89.4    1.0153     0.208        3-1    0.21115 /_  119.3    1.0152
BUS3037 ..... 1       8.0999 /_  -30.7    1.0166    13.800        1-2     14.038 /_   -0.6    1.0172
   -          2       8.1181 /_ -150.6    1.0189    13.800        2-3     14.055 /_ -120.6    1.0184
   -          3       8.1106 /_   89.4     1.018    13.800        3-1     14.046 /_  119.3    1.0178
T_BUS3037_L . 1      0.12147 /_  -30.8    1.0115     0.208        1-2    0.21052 /_   -0.7    1.0121
   -          2      0.12174 /_ -150.7    1.0138     0.208        2-3    0.21077 /_ -120.7    1.0133
   -          3      0.12163 /_   89.3    1.0128     0.208        3-1    0.21064 /_  119.3    1.0127
BUS3038 ..... 1       8.0998 /_  -30.7    1.0166    13.800        1-2     14.038 /_   -0.6    1.0172
   -          2       8.1178 /_ -150.6    1.0189    13.800        2-3     14.054 /_ -120.6    1.0184
   -          3       8.1107 /_   89.4     1.018    13.800        3-1     14.046 /_  119.3    1.0178
T_BUS3038_L . 1      0.12159 /_  -30.8    1.0125     0.208        1-2    0.21074 /_   -0.7    1.0132
   -          2      0.12187 /_ -150.7    1.0148     0.208        2-3    0.21099 /_ -120.7    1.0144
   -          3      0.12176 /_   89.3    1.0139     0.208        3-1    0.21086 /_  119.3    1.0138
BUS3039 ..... 1       8.0997 /_  -30.7    1.0166    13.800        1-2     14.038 /_   -0.6    1.0172
   -          2       8.1175 /_ -150.6    1.0188    13.800        2-3     14.054 /_ -120.6    1.0184
   -          3       8.1109 /_   89.4     1.018    13.800        3-1     14.046 /_  119.3    1.0178
T_BUS3039_L . 1      0.12171 /_  -30.8    1.0135     0.208        1-2    0.21093 /_   -0.7    1.0141
   -          2      0.12198 /_ -150.7    1.0157     0.208        2-3    0.21118 /_ -120.7    1.0153
   -          3      0.12188 /_   89.3    1.0149     0.208        3-1    0.21106 /_  119.3    1.0147
BUS3041 ..... 3       8.1101 /_   89.4    1.0179    13.800
T_BUS3041_L . 1      0.12195 /_   89.3    1.0155     0.208        1-2     0.2439 /_   89.3    1.1726
   -          2      0.12195 /_  -90.7    1.0155     0.208
BUS3042 ..... 3       8.1099 /_   89.4    1.0179    13.800
T_BUS3042_L . 1      0.12179 /_   89.2    1.0142     0.208        1-2    0.24358 /_   89.2    1.1711
   -          2      0.12179 /_  -90.8    1.0142     0.208
BUS3043 ..... 3       8.1098 /_   89.4    1.0179    13.800
T_BUS3043_L . 1      0.12179 /_   89.3    1.0142     0.208        1-2    0.24358 /_   89.3    1.1711
   -          2      0.12179 /_  -90.7    1.0142     0.208
BUS3044 ..... 3       8.1101 /_   89.4    1.0179    13.800
T_BUS3044_L . 1      0.12189 /_   89.3     1.015     0.208        1-2    0.24379 /_   89.3    1.1721
   -          2      0.12189 /_  -90.7     1.015     0.208
BUS3045 ..... 3       8.1101 /_   89.4    1.0179    13.800
T_BUS3045_L . 1      0.12192 /_   89.3    1.0152     0.208        1-2    0.24383 /_   89.3    1.1723
   -          2      0.12192 /_  -90.7    1.0152     0.208
BUS3047 ..... 1          8.1 /_  -30.7    1.0166    13.800        1-2     14.038 /_   -0.6    1.0172
   -          2       8.1185 /_ -150.6     1.019    13.800        2-3     14.055 /_ -120.6    1.0185
   -          3       8.1101 /_   89.4    1.0179    13.800        3-1     14.046 /_  119.3    1.0178
T_BUS3047_L . 1      0.12124 /_  -30.8    1.0096     0.208        1-2    0.21011 /_   -0.7    1.0102
   -          2      0.12152 /_ -150.7    1.0119     0.208        2-3    0.21037 /_ -120.7    1.0114
   -          3      0.12139 /_   89.3    1.0108     0.208        3-1    0.21023 /_  119.2    1.0107
BUS3048 ..... 1          8.1 /_  -30.7    1.0166    13.800        1-2     14.038 /_   -0.6    1.0172
   -          2       8.1185 /_ -150.6     1.019    13.800        2-3     14.055 /_ -120.6    1.0185
   -          3       8.1101 /_   89.4    1.0179    13.800        3-1     14.046 /_  119.3    1.0178
T_BUS3048_L . 1      0.12188 /_  -30.7    1.0149     0.208        1-2    0.21122 /_   -0.6    1.0155
   -          2      0.12216 /_ -150.6    1.0172     0.208        2-3    0.21148 /_ -120.7    1.0167
   -          3      0.12203 /_   89.4    1.0162     0.208        3-1    0.21134 /_  119.3    1.0161
BUS3049 ..... 1          8.1 /_  -30.7    1.0166    13.800        1-2     14.038 /_   -0.6    1.0172
   -          2       8.1185 /_ -150.6     1.019    13.800        2-3     14.055 /_ -120.6    1.0185
   -          3       8.1101 /_   89.4    1.0179    13.800        3-1     14.046 /_  119.3    1.0178
T_BUS3049_L . 1      0.12194 /_  -30.7    1.0154     0.208        1-2    0.21134 /_   -0.6     1.016
   -          2      0.12222 /_ -150.6    1.0178     0.208        2-3    0.21159 /_ -120.6    1.0173
   -          3       0.1221 /_   89.4    1.0167     0.208        3-1    0.21146 /_  119.3    1.0166
BUS3050 ..... 1          8.1 /_  -30.7    1.0166    13.800        1-2     14.038 /_   -0.6    1.0172
   -          2       8.1185 /_ -150.6     1.019    13.800        2-3     14.055 /_ -120.6    1.0185
   -          3       8.1101 /_   89.4    1.0179    13.800        3-1     14.046 /_  119.3    1.0178
T_BUS3050_L . 1      0.12186 /_  -30.7    1.0148     0.208        1-2    0.21119 /_   -0.6    1.0153
   -          2      0.12214 /_ -150.6    1.0171     0.208        2-3    0.21145 /_ -120.6    1.0166
   -          3      0.12201 /_   89.4     1.016     0.208        3-1    0.21131 /_  119.3    1.0159
BUS3051 ..... 1          8.1 /_  -30.7    1.0166    13.800        1-2     14.038 /_   -0.6    1.0172
   -          2       8.1185 /_ -150.6     1.019    13.800        2-3     14.055 /_ -120.6    1.0185
   -          3       8.1101 /_   89.4    1.0179    13.800        3-1     14.046 /_  119.3    1.0178
T_BUS3051_L . 1      0.12188 /_  -30.7    1.0149     0.208        1-2    0.21122 /_   -0.6    1.0155
   -          2      0.12216 /_ -150.6    1.0172     0.208        2-3    0.21148 /_ -120.6    1.0167
   -          3      0.12203 /_   89.4    1.0162     0.208        3-1    0.21134 /_  119.3    1.0161
BUS3052 ..... 1          8.1 /_  -30.7    1.0166    13.800        1-2     14.038 /_   -0.6    1.0172
   -          2       8.1185 /_ -150.6     1.019    13.800        2-3     14.055 /_ -120.6    1.0185
   -          3       8.1101 /_   89.4    1.0179    13.800        3-1     14.046 /_  119.3    1.0178
T_BUS3052_L . 1      0.12155 /_  -30.7    1.0121     0.208        1-2    0.21065 /_   -0.6    1.0127
   -          2      0.12183 /_ -150.6    1.0145     0.208        2-3    0.21091 /_ -120.6     1.014
   -          3       0.1217 /_   89.4    1.0134     0.208        3-1    0.21077 /_  119.3    1.0133
BUS3054 ..... 1       8.0997 /_  -30.7    1.0166    13.800        1-2     14.037 /_   -0.6    1.0172
   -          2       8.1172 /_ -150.6    1.0188    13.800        2-3     14.054 /_ -120.6    1.0184
   -          3        8.111 /_   89.4     1.018    13.800        3-1     14.046 /_  119.3    1.0178
T_BUS3054_L . 1      0.12187 /_  -30.7    1.0148     0.208        1-2    0.21121 /_   -0.6    1.0154
   -          2      0.12214 /_ -150.6     1.017     0.208        2-3    0.21146 /_ -120.6    1.0166
   -          3      0.12204 /_   89.4    1.0163     0.208        3-1    0.21134 /_  119.3    1.0161
BUS3056 ..... 2        8.114 /_ -150.6    1.0184    13.800
T_BUS3056_L . 1      0.12199 /_ -150.7    1.0158     0.208        1-2    0.24397 /_ -150.7    1.1729
   -          2      0.12199 /_   29.3    1.0158     0.208
BUS3057 ..... 2       8.1139 /_ -150.6    1.0184    13.800
T_BUS3057_L . 1      0.12197 /_ -150.7    1.0156     0.208        1-2    0.24393 /_ -150.7    1.1728
   -          2      0.12197 /_   29.3    1.0156     0.208
BUS3058 ..... 2       8.1138 /_ -150.6    1.0184    13.800
T_BUS3058_L . 1      0.12201 /_ -150.7     1.016     0.208        1-2    0.24402 /_ -150.7    1.1732
   -          2      0.12201 /_   29.3     1.016     0.208
BUS3059 ..... 2       8.1137 /_ -150.6    1.0184    13.800
T_BUS3059_L . 1      0.12193 /_ -150.7    1.0153     0.208        1-2    0.24385 /_ -150.7    1.1724
   -          2      0.12193 /_   29.3    1.0153     0.208
BUS3060 ..... 2       8.1136 /_ -150.6    1.0184    13.800
T_BUS3060_L . 1        0.122 /_ -150.7    1.0159     0.208        1-2    0.24399 /_ -150.7     1.173
   -          2        0.122 /_   29.3    1.0159     0.208
BUS3061 ..... 2       8.1136 /_ -150.6    1.0183    13.800
T_BUS3061_L . 1      0.12213 /_ -150.6     1.017     0.208        1-2    0.24426 /_ -150.6    1.1743
   -          2      0.12213 /_   29.4     1.017     0.208
BUS3062 ..... 2       8.1136 /_ -150.6    1.0183    13.800
T_BUS3062_L . 1      0.12214 /_ -150.6    1.0171     0.208        1-2    0.24428 /_ -150.6    1.1744
   -          2      0.12214 /_   29.4    1.0171     0.208
BUS3063 ..... 2       8.1133 /_ -150.6    1.0183    13.800
T_BUS3063_L . 1      0.12182 /_ -150.7    1.0144     0.208        1-2    0.24364 /_ -150.7    1.1713
   -          2      0.12182 /_   29.3    1.0144     0.208
BUS3064 ..... 2       8.1132 /_ -150.6    1.0183    13.800
T_BUS3064_L . 1      0.12177 /_ -150.8     1.014     0.208        1-2    0.24355 /_ -150.8    1.1709
   -          2      0.12177 /_   29.2     1.014     0.208
BUS3065 ..... 2       8.1131 /_ -150.6    1.0183    13.800
T_BUS3065_L . 1      0.12203 /_ -150.7    1.0161     0.208        1-2    0.24406 /_ -150.7    1.1733
   -          2      0.12203 /_   29.3    1.0161     0.208
BUS3066 ..... 2        8.113 /_ -150.6    1.0183    13.800
T_BUS3066_L . 1      0.12198 /_ -150.7    1.0158     0.208        1-2    0.24396 /_ -150.7    1.1729
   -          2      0.12198 /_   29.3    1.0158     0.208
BUS3067 ..... 2       8.1129 /_ -150.6    1.0183    13.800
T_BUS3067_L . 1      0.12184 /_ -150.7    1.0146     0.208        1-2    0.24369 /_ -150.7    1.1716
   -          2      0.12184 /_   29.3    1.0146     0.208
BUS3070 ..... 1       8.0968 /_  -30.7    1.0162    13.800        1-2     14.033 /_   -0.6    1.0169
   -          2        8.118 /_ -150.6    1.0189    13.800        2-3     14.052 /_ -120.6    1.0182
   -          3       8.1065 /_   89.4    1.0175    13.800        3-1     14.041 /_  119.3    1.0175
T_BUS3070_L . 1      0.12198 /_  -30.7    1.0157     0.208        1-2     0.2114 /_   -0.6    1.0164
   -          2       0.1223 /_ -150.6    1.0184     0.208        2-3    0.21169 /_ -120.6    1.0177
   -          3      0.12212 /_   89.4    1.0169     0.208        3-1    0.21153 /_  119.3     1.017
BUS3071 ..... 1       8.0968 /_  -30.7    1.0162    13.800        1-2     14.033 /_   -0.6    1.0169
   -          2        8.118 /_ -150.6    1.0189    13.800        2-3     14.052 /_ -120.6    1.0182
   -          3       8.1065 /_   89.4    1.0175    13.800        3-1     14.041 /_  119.3    1.0175
T_BUS3071_L . 1      0.12186 /_  -30.8    1.0148     0.208        1-2    0.21121 /_   -0.6    1.0154
   -          2      0.12218 /_ -150.6    1.0174     0.208        2-3    0.21149 /_ -120.7    1.0168
   -          3      0.12201 /_   89.4     1.016     0.208        3-1    0.21133 /_  119.3     1.016
BUS3072 ..... 1       8.0968 /_  -30.7    1.0162    13.800        1-2     14.033 /_   -0.6    1.0169
   -          2        8.118 /_ -150.6    1.0189    13.800        2-3     14.052 /_ -120.6    1.0182
   -          3       8.1065 /_   89.4    1.0175    13.800        3-1     14.041 /_  119.3    1.0175
T_BUS3072_L . 1       0.1219 /_  -30.8    1.0151     0.208        1-2    0.21126 /_   -0.7    1.0157
   -          2      0.12222 /_ -150.6    1.0177     0.208        2-3    0.21155 /_ -120.7    1.0171
   -          3      0.12204 /_   89.4    1.0163     0.208        3-1    0.21139 /_  119.3    1.0163
BUS3073 ..... 1       8.0968 /_  -30.7    1.0162    13.800        1-2     14.033 /_   -0.6    1.0169
   -          2        8.118 /_ -150.6    1.0189    13.800        2-3     14.052 /_ -120.6    1.0182
   -          3       8.1065 /_   89.4    1.0175    13.800        3-1     14.041 /_  119.3    1.0175
T_BUS3073_L . 1      0.12184 /_  -30.7    1.0146     0.208        1-2    0.21117 /_   -0.6    1.0152
   -          2      0.12216 /_ -150.6    1.0172     0.208        2-3    0.21145 /_ -120.6    1.0166
   -          3      0.12199 /_   89.4    1.0158     0.208        3-1    0.21129 /_  119.3    1.0158
BUS3074 ..... 1       8.0968 /_  -30.7    1.0162    13.800        1-2     14.033 /_   -0.6    1.0169
   -          2        8.118 /_ -150.6    1.0189    13.800        2-3     14.052 /_ -120.6    1.0182
   -          3       8.1065 /_   89.4    1.0175    13.800        3-1     14.041 /_  119.3    1.0175
T_BUS3074_L . 1      0.12162 /_  -30.8    1.0128     0.208        1-2    0.21079 /_   -0.7    1.0134
   -          2      0.12194 /_ -150.6    1.0154     0.208        2-3    0.21107 /_ -120.7    1.0148
   -          3      0.12177 /_   89.4     1.014     0.208        3-1    0.21091 /_  119.3     1.014
BUS3077 ..... 1       8.0962 /_  -30.7    1.0162    13.800        1-2     14.032 /_   -0.6    1.0168
   -          2       8.1178 /_ -150.6    1.0189    13.800        2-3     14.051 /_ -120.6    1.0182
   -          3       8.1057 /_   89.4    1.0174    13.800        3-1      14.04 /_  119.3    1.0174
T_BUS3077_L . 1      0.12165 /_  -31.0     1.013     0.208        1-2    0.21083 /_   -0.9    1.0136
   -          2      0.12197 /_ -150.8    1.0157     0.208        2-3    0.21112 /_ -120.9     1.015
   -          3      0.12179 /_   89.1    1.0142     0.208        3-1    0.21095 /_  119.1    1.0142
BUS3078 ..... 1       8.0962 /_  -30.7    1.0162    13.800        1-2     14.032 /_   -0.6    1.0168
   -          2       8.1178 /_ -150.6    1.0189    13.800        2-3     14.051 /_ -120.6    1.0182
   -          3       8.1057 /_   89.4    1.0174    13.800        3-1      14.04 /_  119.3    1.0174
T_BUS3078_L . 1      0.12168 /_  -30.8    1.0133     0.208        1-2    0.21089 /_   -0.7    1.0139
   -          2      0.12201 /_ -150.6     1.016     0.208        2-3    0.21118 /_ -120.7    1.0153
   -          3      0.12182 /_   89.4    1.0145     0.208        3-1    0.21101 /_  119.3    1.0145
BUS3081 ..... 1       8.0946 /_  -30.8     1.016    13.800        1-2     14.029 /_   -0.6    1.0166
   -          2       8.1177 /_ -150.6    1.0189    13.800        2-3      14.05 /_ -120.6    1.0181
   -          3       8.1037 /_   89.4    1.0171    13.800        3-1     14.038 /_  119.3    1.0172
   -          4       8.0946 /_  -30.8     1.016    13.800
   -          5       8.1177 /_ -150.6    1.0189    13.800
   -          6       8.1037 /_   89.4    1.0171    13.800
T_BUS3081_L . 1      0.12188 /_  -30.8    1.0149     0.208        1-2    0.21125 /_   -0.7    1.0156
   -          2      0.12223 /_ -150.6    1.0178     0.208        2-3    0.21155 /_ -120.7    1.0171
   -          3      0.12202 /_   89.4    1.0161     0.208        3-1    0.21137 /_  119.3    1.0162
BUS3083 ..... 1       8.0932 /_  -30.8    1.0158    13.800
T_BUS3083_L . 1       0.1217 /_  -30.9    1.0134     0.208        1-2    0.24341 /_  -30.9    1.1702
   -          2       0.1217 /_  149.1    1.0134     0.208
BUS3084 ..... 1       8.0929 /_  -30.8    1.0158    13.800
T_BUS3084_L . 1      0.12177 /_  -30.8     1.014     0.208        1-2    0.24353 /_  -30.8    1.1708
   -          2      0.12177 /_  149.2     1.014     0.208
BUS3085 ..... 1       8.0923 /_  -30.8    1.0157    13.800
T_BUS3085_L . 1      0.12153 /_  -30.9     1.012     0.208        1-2    0.24306 /_  -30.9    1.1685
   -          2      0.12153 /_  149.1     1.012     0.208
BUS3086 ..... 1       8.0919 /_  -30.8    1.0156    13.800
T_BUS3086_L . 1      0.12173 /_  -30.8    1.0137     0.208        1-2    0.24346 /_  -30.8    1.1705
   -          2      0.12173 /_  149.2    1.0137     0.208
BUS3087 ..... 1       8.0917 /_  -30.8    1.0156    13.800
T_BUS3087_L . 1      0.12162 /_  -30.8    1.0127     0.208        1-2    0.24324 /_  -30.8    1.1694
   -          2      0.12162 /_  149.2    1.0127     0.208
BUS3088 ..... 1       8.0915 /_  -30.8    1.0156    13.800
T_BUS3088_L . 1      0.12145 /_  -31.0    1.0114     0.208        1-2    0.24291 /_  -31.0    1.1678
   -          2      0.12145 /_  149.0    1.0114     0.208
BUS3089 ..... 1       8.0914 /_  -30.8    1.0156    13.800
T_BUS3089_L . 1      0.12182 /_  -30.8    1.0144     0.208        1-2    0.24363 /_  -30.8    1.1713
   -          2      0.12182 /_  149.2    1.0144     0.208
BUS3090 ..... 1       8.0913 /_  -30.8    1.0155    13.800
T_BUS3090_L . 1      0.12171 /_  -30.9    1.0135     0.208        1-2    0.24343 /_  -30.9    1.1703
   -          2      0.12171 /_  149.1    1.0135     0.208
BUS3091 ..... 1       8.0913 /_  -30.8    1.0155    13.800
T_BUS3091_L . 1      0.12164 /_  -30.9    1.0129     0.208        1-2    0.24327 /_  -30.9    1.1696
   -          2      0.12164 /_  149.1    1.0129     0.208
BUS3093 ..... 1       8.0929 /_  -30.8    1.0158    13.800
T_BUS3093_L . 1      0.12162 /_  -30.8    1.0127     0.208        1-2    0.24324 /_  -30.8    1.1694
   -          2      0.12162 /_  149.2    1.0127     0.208
BUS3094 ..... 1       8.0928 /_  -30.8    1.0157    13.800
T_BUS3094_L . 1      0.12174 /_  -30.8    1.0138     0.208        1-2    0.24349 /_  -30.8    1.1706
   -          2      0.12174 /_  149.2    1.0138     0.208
BUS3095 ..... 1       8.0927 /_  -30.8    1.0157    13.800
T_BUS3095_L . 1      0.12154 /_  -30.9    1.0121     0.208        1-2    0.24309 /_  -30.9    1.1687
   -          2      0.12154 /_  149.1    1.0121     0.208
BUS3096 ..... 1       8.0925 /_  -30.8    1.0157    13.800
T_BUS3096_L . 1      0.12172 /_  -30.8    1.0136     0.208        1-2    0.24344 /_  -30.8    1.1704
   -          2      0.12172 /_  149.2    1.0136     0.208
BUS3097 ..... 1       8.0925 /_  -30.8    1.0157    13.800
T_BUS3097_L . 1      0.12124 /_  -31.0    1.0096     0.208        1-2    0.24248 /_  -31.0    1.1658
   -          2      0.12124 /_  149.0    1.0096     0.208
BUS3098 ..... 2       8.1174 /_ -150.6    1.0188    13.800
T_BUS3098_L . 1      0.12197 /_ -150.7    1.0157     0.208        1-2    0.24394 /_ -150.7    1.1728
   -          2      0.12197 /_   29.3    1.0157     0.208
BUS3099 ..... 2       8.1173 /_ -150.6    1.0188    13.800
T_BUS3099_L . 1      0.12205 /_ -150.7    1.0164     0.208        1-2    0.24411 /_ -150.7    1.1736
   -          2      0.12205 /_   29.3    1.0164     0.208
BUS3101 ..... 3       8.1016 /_   89.4    1.0168    13.800
T_BUS3101_L . 1      0.12186 /_   89.3    1.0148     0.208        1-2    0.24373 /_   89.3    1.1718
   -          2      0.12186 /_  -90.7    1.0148     0.208
BUS3102 ..... 3       8.1014 /_   89.4    1.0168    13.800
T_BUS3102_L . 1      0.12157 /_   89.2    1.0124     0.208        1-2    0.24315 /_   89.2     1.169
   -          2      0.12157 /_  -90.8    1.0124     0.208
BUS3103 ..... 3       8.1014 /_   89.4    1.0168    13.800
T_BUS3103_L . 1      0.12172 /_   89.3    1.0136     0.208        1-2    0.24345 /_   89.3    1.1704
   -          2      0.12172 /_  -90.7    1.0136     0.208
BUS3104 ..... 3       8.1015 /_   89.4    1.0168    13.800
T_BUS3104_L . 1      0.12182 /_   89.3    1.0144     0.208        1-2    0.24365 /_   89.3    1.1714
   -          2      0.12182 /_  -90.7    1.0144     0.208
BUS3105 ..... 3       8.1014 /_   89.4    1.0168    13.800
T_BUS3105_L . 1      0.12187 /_   89.3    1.0148     0.208        1-2    0.24373 /_   89.3    1.1718
   -          2      0.12187 /_  -90.7    1.0148     0.208
BUS3106 ..... 3       8.1013 /_   89.4    1.0168    13.800
T_BUS3106_L . 1      0.12178 /_   89.3    1.0141     0.208        1-2    0.24356 /_   89.3     1.171
   -          2      0.12178 /_  -90.7    1.0141     0.208
BUS3108 ..... 1       8.0897 /_  -30.8    1.0153    13.800
T_BUS3108_L . 1      0.12172 /_  -30.8    1.0136     0.208        1-2    0.24344 /_  -30.8    1.1704
   -          2      0.12172 /_  149.2    1.0136     0.208
BUS3109 ..... 1       8.0894 /_  -30.8    1.0153    13.800
T_BUS3109_L . 1      0.12094 /_  -31.0    1.0071     0.208        1-2    0.24189 /_  -31.0    1.1629
   -          2      0.12094 /_  149.0    1.0071     0.208
BUS3110 ..... 1       8.0892 /_  -30.8    1.0153    13.800
T_BUS3110_L . 1      0.12152 /_  -31.0    1.0119     0.208        1-2    0.24304 /_  -31.0    1.1685
   -          2      0.12152 /_  149.0    1.0119     0.208
BUS3111 ..... 1        8.089 /_  -30.8    1.0153    13.800
T_BUS3111_L . 1      0.12145 /_  -30.9    1.0113     0.208        1-2     0.2429 /_  -30.9    1.1678
   -          2      0.12145 /_  149.1    1.0113     0.208
BUS3112 ..... 1       8.0888 /_  -30.8    1.0152    13.800
T_BUS3112_L . 1      0.12152 /_  -31.0    1.0119     0.208        1-2    0.24305 /_  -31.0    1.1685
   -          2      0.12152 /_  149.0    1.0119     0.208
BUS3114 ..... 2        8.116 /_ -150.6    1.0187    13.800
T_BUS3114_L . 1      0.12191 /_ -150.7    1.0152     0.208        1-2    0.24382 /_ -150.7    1.1722
   -          2      0.12191 /_   29.3    1.0152     0.208
BUS3115 ..... 2       8.1159 /_ -150.6    1.0186    13.800
T_BUS3115_L . 1      0.12198 /_ -150.8    1.0158     0.208        1-2    0.24397 /_ -150.8    1.1729
   -          2      0.12198 /_   29.2    1.0158     0.208
BUS3116 ..... 2       8.1159 /_ -150.6    1.0186    13.800
T_BUS3116_L . 1      0.12184 /_ -150.8    1.0146     0.208        1-2    0.24368 /_ -150.8    1.1715
   -          2      0.12184 /_   29.2    1.0146     0.208
BUS3117 ..... 2       8.1159 /_ -150.6    1.0186    13.800
T_BUS3117_L . 1        0.122 /_ -150.7    1.0159     0.208        1-2    0.24399 /_ -150.7     1.173
   -          2        0.122 /_   29.3    1.0159     0.208
BUS3120 ..... 2       8.1132 /_ -150.6    1.0183    13.800
...